comp_1_C conformer 1
     RDKit          3D

  5  4  0  0  0  0  0  0  0  0999 V2000
    1.9272    0.0335    0.0060 I   0  0  0  0  0  0  0  0  0  0  0  0
   -0.2045   -0.0036   -0.0006 C   0  0  0  0  0  0  0  0  0  0  0  0
   -0.5757   -0.1091    1.0395 H   0  0  0  0  0  0  0  0  0  0  0  0
   -0.5894    0.9412   -0.4366 H   0  0  0  0  0  0  0  0  0  0  0  0
   -0.5575   -0.8620   -0.6082 H   0  0  0  0  0  0  0  0  0  0  0  0
  1  2  1  0
  2  3  1  0
  2  4  1  0
  2  5  1  0
M  END
>  <Energy>  (1) 
1.0236885620415147e-07

$$$$
