%MEM=96GB
%nprocshared=24
# wB97xd/gen SCRF=(SMD,Solvent=Acetonitrile) nmr=giao EmpiricalDispersion=GD3BJ

 comp_0_tBu conformer 2

0  1
C          -1.49240         0.29490        -0.10370
C           0.07900         0.28430        -0.05640
C           0.67070        -0.15560         1.29550
C           2.18220         0.09080         1.36680
C           2.88680        -0.02520         0.01640
C           2.16340        -0.99000        -0.90880
C           0.72790        -0.53960        -1.19770
C          -1.98400         0.68610        -1.51430
C          -2.10310        -1.07010         0.26610
C          -2.04560         1.34870         0.88180
H           0.39770         1.32680        -0.21110
H           0.20140         0.36530         2.13540
H           0.48260        -1.22580         1.44790
H           2.37600         1.08860         1.77900
H           2.61950        -0.62210         2.07650
H           3.92350        -0.34640         0.16810
H           2.93310         0.96320        -0.45780
H           2.14490        -1.98560        -0.44730
H           2.71150        -1.09510        -1.85200
H           0.13950        -1.43170        -1.43590
H           0.73150         0.07450        -2.10750
H          -1.54540         1.63790        -1.83400
H          -3.07420         0.80020        -1.53640
H          -1.72830        -0.07310        -2.26070
H          -1.76520        -1.86580        -0.40430
H          -3.19740        -1.03780         0.20280
H          -1.85030        -1.36240         1.29050
H          -1.84420         1.08300         1.92400
H          -3.13330         1.44710         0.78450
H          -1.60750         2.33500         0.69260

C H 0
6-31g**
****

