%MEM=96GB
%nprocshared=24
# wB97xd/genecp SCRF=(SMD,Solvent=Acetonitrile) nmr=giao EmpiricalDispersion=GD3BJ

 comp_1_C conformer 1

0  1
I           1.92720         0.03350         0.00600
C          -0.20450        -0.00360        -0.00060
H          -0.57570        -0.10910         1.03950
H          -0.58940         0.94120        -0.43660
H          -0.55750        -0.86200        -0.60820

C H 0
6-31g**
****
I 0
LANL2DZ
****

I 0
LANL2DZ

