comp_0_tBu conformer 1
 OpenBabel02132013113D

 30 30  0  0  0  0  0  0  0  0999 V2000
   -1.5233   -0.0105   -0.3542 C   0  0  0  0  0  0  0  0  0  0  0  0
   -0.0128   -0.3440   -0.0561 C   0  0  0  0  0  0  0  0  0  0  0  0
    0.9032   -0.2313   -1.2962 C   0  0  0  0  0  0  0  0  0  0  0  0
    2.3485   -0.6195   -0.9849 C   0  0  0  0  0  0  0  0  0  0  0  0
    2.9169    0.1997    0.1656 C   0  0  0  0  0  0  0  0  0  0  0  0
    2.0352    0.0951    1.4024 C   0  0  0  0  0  0  0  0  0  0  0  0
    0.5886    0.4863    1.1008 C   0  0  0  0  0  0  0  0  0  0  0  0
   -2.0723   -0.9474   -1.4531 C   0  0  0  0  0  0  0  0  0  0  0  0
   -1.7317    1.4439   -0.8169 C   0  0  0  0  0  0  0  0  0  0  0  0
   -2.3823   -0.2403    0.9091 C   0  0  0  0  0  0  0  0  0  0  0  0
    0.0193   -1.3968    0.2632 H   0  0  0  0  0  0  0  0  0  0  0  0
    0.8924    0.7938   -1.6840 H   0  0  0  0  0  0  0  0  0  0  0  0
    0.5486   -0.8841   -2.1000 H   0  0  0  0  0  0  0  0  0  0  0  0
    2.9672   -0.4770   -1.8782 H   0  0  0  0  0  0  0  0  0  0  0  0
    2.3932   -1.6863   -0.7332 H   0  0  0  0  0  0  0  0  0  0  0  0
    3.9292   -0.1468    0.4022 H   0  0  0  0  0  0  0  0  0  0  0  0
    3.0005    1.2504   -0.1379 H   0  0  0  0  0  0  0  0  0  0  0  0
    2.4329    0.7416    2.1929 H   0  0  0  0  0  0  0  0  0  0  0  0
    2.0625   -0.9320    1.7869 H   0  0  0  0  0  0  0  0  0  0  0  0
    0.0080    0.3487    2.0184 H   0  0  0  0  0  0  0  0  0  0  0  0
    0.5590    1.5543    0.8567 H   0  0  0  0  0  0  0  0  0  0  0  0
   -1.8900   -1.9984   -1.2030 H   0  0  0  0  0  0  0  0  0  0  0  0
   -3.1542   -0.8204   -1.5777 H   0  0  0  0  0  0  0  0  0  0  0  0
   -1.6183   -0.7446   -2.4282 H   0  0  0  0  0  0  0  0  0  0  0  0
   -1.4089    2.1631   -0.0579 H   0  0  0  0  0  0  0  0  0  0  0  0
   -1.1879    1.6590   -1.7419 H   0  0  0  0  0  0  0  0  0  0  0  0
   -2.7920    1.6414   -1.0152 H   0  0  0  0  0  0  0  0  0  0  0  0
   -3.4511   -0.1433    0.6844 H   0  0  0  0  0  0  0  0  0  0  0  0
   -2.2210   -1.2435    1.3190 H   0  0  0  0  0  0  0  0  0  0  0  0
   -2.1593    0.4894    1.6940 H   0  0  0  0  0  0  0  0  0  0  0  0
  1  2  1  0  0  0  0
  1  8  1  0  0  0  0
  1  9  1  0  0  0  0
  1 10  1  0  0  0  0
  2  3  1  0  0  0  0
  2 11  1  0  0  0  0
  3  4  1  0  0  0  0
  3 12  1  0  0  0  0
  3 13  1  0  0  0  0
  4  5  1  0  0  0  0
  4 14  1  0  0  0  0
  4 15  1  0  0  0  0
  5  6  1  0  0  0  0
  5 16  1  0  0  0  0
  5 17  1  0  0  0  0
  6  7  1  0  0  0  0
  6 18  1  0  0  0  0
  6 19  1  0  0  0  0
  7  2  1  0  0  0  0
  7 20  1  0  0  0  0
  7 21  1  0  0  0  0
  8 22  1  0  0  0  0
  8 23  1  0  0  0  0
  8 24  1  0  0  0  0
  9 25  1  0  0  0  0
  9 26  1  0  0  0  0
  9 27  1  0  0  0  0
 10 28  1  0  0  0  0
 10 29  1  0  0  0  0
 10 30  1  0  0  0  0
M  END
>  <Energy>
18.6836459032086

$$$$
comp_0_tBu conformer 2
 OpenBabel02132013113D

 30 30  0  0  0  0  0  0  0  0999 V2000
   -1.4924    0.2949   -0.1037 C   0  0  0  0  0  0  0  0  0  0  0  0
    0.0790    0.2843   -0.0564 C   0  0  0  0  0  0  0  0  0  0  0  0
    0.6707   -0.1556    1.2955 C   0  0  0  0  0  0  0  0  0  0  0  0
    2.1822    0.0908    1.3668 C   0  0  0  0  0  0  0  0  0  0  0  0
    2.8868   -0.0252    0.0164 C   0  0  0  0  0  0  0  0  0  0  0  0
    2.1634   -0.9900   -0.9088 C   0  0  0  0  0  0  0  0  0  0  0  0
    0.7279   -0.5396   -1.1977 C   0  0  0  0  0  0  0  0  0  0  0  0
   -1.9840    0.6861   -1.5143 C   0  0  0  0  0  0  0  0  0  0  0  0
   -2.1031   -1.0701    0.2661 C   0  0  0  0  0  0  0  0  0  0  0  0
   -2.0456    1.3487    0.8818 C   0  0  0  0  0  0  0  0  0  0  0  0
    0.3977    1.3268   -0.2111 H   0  0  0  0  0  0  0  0  0  0  0  0
    0.2014    0.3653    2.1354 H   0  0  0  0  0  0  0  0  0  0  0  0
    0.4826   -1.2258    1.4479 H   0  0  0  0  0  0  0  0  0  0  0  0
    2.3760    1.0886    1.7790 H   0  0  0  0  0  0  0  0  0  0  0  0
    2.6195   -0.6221    2.0765 H   0  0  0  0  0  0  0  0  0  0  0  0
    3.9235   -0.3464    0.1681 H   0  0  0  0  0  0  0  0  0  0  0  0
    2.9331    0.9632   -0.4578 H   0  0  0  0  0  0  0  0  0  0  0  0
    2.1449   -1.9856   -0.4473 H   0  0  0  0  0  0  0  0  0  0  0  0
    2.7115   -1.0951   -1.8520 H   0  0  0  0  0  0  0  0  0  0  0  0
    0.1395   -1.4317   -1.4359 H   0  0  0  0  0  0  0  0  0  0  0  0
    0.7315    0.0745   -2.1075 H   0  0  0  0  0  0  0  0  0  0  0  0
   -1.5454    1.6379   -1.8340 H   0  0  0  0  0  0  0  0  0  0  0  0
   -3.0742    0.8002   -1.5364 H   0  0  0  0  0  0  0  0  0  0  0  0
   -1.7283   -0.0731   -2.2607 H   0  0  0  0  0  0  0  0  0  0  0  0
   -1.7652   -1.8658   -0.4043 H   0  0  0  0  0  0  0  0  0  0  0  0
   -3.1974   -1.0378    0.2028 H   0  0  0  0  0  0  0  0  0  0  0  0
   -1.8503   -1.3624    1.2905 H   0  0  0  0  0  0  0  0  0  0  0  0
   -1.8442    1.0830    1.9240 H   0  0  0  0  0  0  0  0  0  0  0  0
   -3.1333    1.4471    0.7845 H   0  0  0  0  0  0  0  0  0  0  0  0
   -1.6075    2.3350    0.6926 H   0  0  0  0  0  0  0  0  0  0  0  0
  1  2  1  0  0  0  0
  1  8  1  0  0  0  0
  1  9  1  0  0  0  0
  1 10  1  0  0  0  0
  2  3  1  0  0  0  0
  2 11  1  0  0  0  0
  3  4  1  0  0  0  0
  3 12  1  0  0  0  0
  3 13  1  0  0  0  0
  4  5  1  0  0  0  0
  4 14  1  0  0  0  0
  4 15  1  0  0  0  0
  5  6  1  0  0  0  0
  5 16  1  0  0  0  0
  5 17  1  0  0  0  0
  6  7  1  0  0  0  0
  6 18  1  0  0  0  0
  6 19  1  0  0  0  0
  7  2  1  0  0  0  0
  7 20  1  0  0  0  0
  7 21  1  0  0  0  0
  8 22  1  0  0  0  0
  8 23  1  0  0  0  0
  8 24  1  0  0  0  0
  9 25  1  0  0  0  0
  9 26  1  0  0  0  0
  9 27  1  0  0  0  0
 10 28  1  0  0  0  0
 10 29  1  0  0  0  0
 10 30  1  0  0  0  0
M  END
>  <Energy>
24.27271116450564

$$$$
